Version 4
SHEET 1 880 680
WIRE 528 -32 480 -32
WIRE 656 -32 592 -32
WIRE 480 48 480 -32
WIRE 512 48 480 48
WIRE 656 48 656 -32
WIRE 656 48 592 48
WIRE 656 96 656 48
WIRE 480 144 480 48
WIRE 592 144 480 144
WIRE 80 176 -128 176
WIRE -128 192 -128 176
WIRE 240 192 144 192
WIRE 432 192 320 192
WIRE 432 224 432 192
WIRE 544 224 432 224
WIRE 592 240 512 240
WIRE 512 304 512 240
WIRE -128 320 -128 272
WIRE 512 432 512 384
FLAG 512 432 0
FLAG 656 96 0
FLAG -128 320 0
SYMBOL Digital\\or 112 112 R0
WINDOW 3 0 0 Invisible 2
SYMATTR Value Vhigh=3.3 Ref=2.1 td=10ns
SYMATTR InstName OR
SYMBOL voltage 512 288 R0
WINDOW 123 0 0 Left 2
WINDOW 39 0 0 Left 2
SYMATTR InstName V1
SYMATTR Value 3.3
SYMBOL res 336 176 R90
WINDOW 0 0 56 VBottom 2
WINDOW 3 32 56 VTop 2
SYMATTR InstName R1
SYMATTR Value 120
SYMATTR SpiceLine tol=1 pwr=0.1
SYMBOL res 608 32 R90
WINDOW 0 0 56 VBottom 2
WINDOW 3 32 56 VTop 2
SYMATTR InstName R3
SYMATTR Value 332
SYMATTR SpiceLine tol=1 pwr=0.1
SYMBOL voltage -128 176 R0
WINDOW 0 -41 11 Left 2
WINDOW 123 0 0 Left 2
WINDOW 39 0 0 Left 2
SYMATTR InstName V2
SYMATTR Value PULSE(0 3.3 0 10ns 10ns 0.249us 0.5us)
SYMBOL pmos 544 144 R0
SYMATTR InstName M1
SYMATTR Value BSS84
SYMBOL schottky 592 -48 R90
WINDOW 0 0 32 VBottom 2
WINDOW 3 32 32 VTop 2
SYMATTR InstName D1
SYMATTR Value BAT54
SYMATTR Description Diode
SYMATTR Type diode
TEXT -168 456 Left 2 !.tran 0 3000ns 0
